  10 C***** HURKA ********
  10 C  6:ELVALASZTO SZAL...............I.................................
  10 C  ................................I5:BUKLE PLATIROZVA (2.SZIN)......
  10 C  ................................I4:2HB (1.SZIN)...................
  10 C  ................................I3:2HB (2.SZIN)...................
  10 C  ................................I2:BUKLE PLATIROZVA (1.SZIN)......
  10 C  ................................I.................................
  10 C  E-H:   SP10  RS1=17           ST=14(56DB) 27  BORDA
  10 C  U:     SP10  RS1=17 (VAGY 12) ST= 8(56DB) 15.5BORDA
  10 C  NYAK:  SP500                  ST= 6(30DB) 19  BORDA
   1C       13.5  15.5           15.5  13.5
   1C  1: <-------------       ------------->  MINTA 
   1C       13.5    0              0   13.5
   1C         0    12             12     0
   1C J2: <-------------       ------------->  KORSLAG
   1C        12     0              0    12
   1C        -      -             13     8
   1C B2: <-------------       ------------->  BEKEZDES
   1C        -      -              0    12
   1C
   1C J3: <-------------       ------------->
   1C
   1C        -      -              -     -
   1C B3: <-------------       ------------->
   1C        -      -              -     -
   1C       13.0   13.0         13.0   13.0
   1C J4: <-------------       ------------->  LEVALASZTAS
   1C       13.0   13.0         13.0   13.0
   1C B4:=J4
   1C SOK SULY!!
  20 START 
  22 YG:6/2345;
  26 << S:D.I-DI./DI.-D.I;          Y:3/4;   ML   NP4-4  V#  V0        S1 S2
  28 >> S:D.I-DI./UVNDI.;           Y:3;     ML                        S1    T2
  30 << S:DI.-D.I/UVND.I;           Y:2;     ML                        S1    T2
  34 >> S:R-R;		                    Y:6;     ML                        S1
  36 << S:0-R/R-0;                  Y:0/6;   ML         	              S1 S2
  38 >> S:R-R/0-R;      	Y:2/4;	     NP2-2   ML     S1 S2
  40 << S:R-0/0-R;	                         ML    NP2-2       S1 S2    
  42 >>                                      ML               S1 S2
  73 << S:U^ND..II.;                         ML    NP0-0  T1
  74 >> S:0-0;         Y:0;          NP01-01                  S1
  77 C---CSIKOK---
  78 RS2=10;    Y:2/4;      GOSUB 200-210
  80 RS2=6;     Y:3/4/4/3;  GOSUB 200-210
  82 RS2=6;     Y:2/4;      GOSUB 200-210
  84 RS2=6;     Y:5/3;      GOSUB 200-210
  86 RS2=6;     Y:2/4;      GOSUB 200-210
  88 RS2=6;     Y:3/4/4/3;  GOSUB 200-210
  90 RS2=4;     Y:2/4;      GOSUB 200-210
  92 RS2=6;     Y:5/3;      GOSUB 200-210
  94 RS2=#101;  Y:2/4;      GOSUB 200-210
  100 END
  200 RBEG*RS2
  202 << S:DII..I-R/0-R;                       S1 S2
  204 >>                                       S1 S2
  210 REND
  500 C----GARBO NYAK-----
  512 START
  513 GOSUB 22-74
  514 RS2=23;    Y:2/4;     GOSUB 200-210
  520 END
