1C POTTYOS ZSAKKOTSU BUKLE
1C  EZ A JO!!!!!!!!!!!!!!!!!!!!!!!!!!!!!!!!!!!!!! FELUL FELSZOVET!!!!!!!!!!!!!!!!!!!!!!!!!!444444
   1C BUKLE     
   1C       VAGY: LAJTOS   2050         
   1C       VAGY: IZA      2000
   1C FEKETE HB 
   1C       VAGY: IZA     32/2-ES: 
   1C       VAGY: TAMAS   30/2-ES:1550FT
   1C       VAGY: BAJAI   32/2-ES:1610 
   1C             LAJTOS: 32/2
   1C             LAJTOS: 16/1
   1C------------------------------------------------------------------------------
   1C                  SUM.: 1013.09:1900-1940 FT/KG                               
1C--------+--------+----------+---------+----------+-------+-------+---------+-----+------+-------+-----+
1C MERET: I FONAL: I SULY*FT: I VARRAS: I KELLLEK: I  GOZ  I SUMM: I ELADAS: I H:  I IDO: I FT/O: I %:  I
1C--------+--------+----------+---------+----------+-------+-------+---------+-----+------+-------+-----+
1C--------+--------+----------+---------+----------+-------+-------+---------+-----+------+-------+-----+
1C   SZALVEZETOK:
1C---------------------------------------------------------------------------------------------------------------------
1C                                       Y:2:  ALAP: 1 FEKETE   7.5 BUKLE+1HB  I 
1C                                       Y:5:  ALAP: 1 FEKETE   7.5 BUKLE+1HB  I    
1C                                       Y:3:  MINTA:1 FEKETE   7.5 BUKLE      I            
1C                                       Y:4:  ALAP: 1 SZINES   7.5 BUKLE      I             
1C Y:1:  FELSZOVET: 1 FEKETE 7.5 BUKLE   Y:1:  FELSZ: 1 SZINES  7.5 BUKLE
1C-----------------------+------------+-------------------------------------------------------------------------------
  10 C-----------------------------LAJTOS 6-OS BUKLE:----
  10 NP4=12.6    C:LEVALASZTAS              
  11 NP2=10.2    C:BEKEZDES 10.2
  12 NP3=12.5    C:2/1 PASSZE
  13 NP1=10.2    C:  FELSZOVET             
  15 NP6=12.5    C:  BUKLE ELOL-HATUL      12.5-12.6

  40 START        
  50 YG:16/123456;
  51 WM=16;WMI=7
  52 << S:D.I-DI./DI.-D.I;            Y:5/2;  NP4-4    VU V0       S1 S2

C************************************************************************************************************************
  60 C---POTTYOS ZSAK -------------------------KESZEN:--------------VASALVA:---
  62 C  IF #100=3   RS17=11	       C 3'V'NYAK
  64 C  IF #100=2   RS17=10        C 3DB GARBO (FELIG NYITOTT)    
  65 C  IF #100=2   RS17=13        C 4 DB GARBO (ZART)   
  66   IF #100=1   RS17=0         C UEHU          30'  T:55*69 U:22*58     2*110*72          

  68 C  IF #100=1   RS17=4         C 4U  
  70 C  IF #100=1   RS17=5         C 5U CS  (CSAK A 4 LAPOSHOZ A HIBASAK POTLASARA)
  72 C  IF #100=27  RS17=3         C TTT    NAGY MERET KESZEN:60*72      
C************************************************************************************************************************



 101 C***********TUK.:****GUMI:******PAS:*****MINTA:*****************KESZEN:***********VASALVA:**************
 108 IF RS17=0  RS19=0    RS15=1     RS1=9   RS2=120  RS3=15 C UTTU             
 110 IF RS17=3  RS19=3    RS15=1     RS1=9   RS2=     RS3=   C TTT   
 112 IF RS17=4  RS19=4    RS15=1     RS1=9   RS2=     RS3=   C 4U      
 114 IF RS17=5  RS19=5    RS15=1     RS1=9   RS2=     RS3=   C 5U
C---NYAKAK:---------------G:---
 120 IF RS17=10 RS19=3 RS15=0    RS18=2           RS1=23           C 3 GARBO,FELIG NYITOTT GYONGYOSHOZ:    RS1=23(22CM.)
 121 IF RS17=11 RS19=3 RS15=1    RS18=2           RS1=13           C 3 GOMBOS 'V'NYAK KAROHOZ      :       RS1=13
 122 IF RS17=12 RS19=2 RS15=0    RS18=2           RS1=36           C 2 LELOGO KAMZSA NYAK 33CM RS1=36 33*200CM-RE KELL VASALNI
 124 IF RS17=13 RS19=4 RS15=0    RS18=2           RS1=23           C 4DB 20CM GARBO 
C*******************************************************************************************************

 150 C************581TU**************************************************************
 151 JA1=1376(1362-1376);      C POTTYOS MINTA
 154 PA:1:<JA1>;
 
 160  IF RS19=3  FA=5-191;                        PM:<I*>9:FA I* FA I* FA;             C*3  
 162  IF RS19=5  FA=42-153;                       PM:<I*>7:FA I* FA I* FA I* FA I* FA; C*5  
 163  IF RS19=4  FA=27-066;                       PM:<I*>8:FA I* FA I* FA I* FA;       C*4 
 166  IF RS19=0  F1=15-180;F2=41-157;             PM:<I*>6:F2 . F1 I* F1 . F2;         C*U-T-T-U    
 168  IF RS19=10 F1=1-  ;                         PM:<I*>9:<F1>574:<I*>;               C OSZTAS NELKUL
 170 C MS C*******************************************************************************

 200 >>	S:U^ND..I/DII.-D..I/UVNDII.; Y:2;                           T1 S1    T2
 202 <<	S:DI..-D..I/UVND..I;		                  VL1                    S1    T2
 204 >> S:D..I-R/DII.-D.II;          Y:0/6;                    VU       S1 S2      C VAGY: VU
 206 << S:DII.-0/D..I-R;             Y:6/0;                    VU      S1 S2      C VAGY: VU            
 208 >>	S:DII.(2)-D.II(2)/DII.(3)-0; Y:5/2;	                   VU      S1 S2      C VAGY: VU
C---------------------------------------------------
 210 IF RS15=0 GOTO 220  C---GUMI NELKUL RS15=0-----
 212 << S:DII.-0;                    Y:6;                      VU       S1         C VAGY: VU
 214 >>                                                        VU       S2         C VAGY: VU
 216 << S:DII.-D.II;                 Y:5/2;       NP3-3   V0   VU       S1 S2      C VAGY: VU
 218 GOTO 222            C---GUMIVAL RS15=1---------
 220 << S:0-D.II/DII.-D.II;                       NP3-3   V0   VU      S1 S2      C VAGY: VU
C---------------------------------------------------
 222 RBEG*RS1
 224 >> S:DII.-D.II;                                           VU      S1 S2      C VAGY: VU
 226 <<                                                        VU      S1 S2      C VAGY: VU
 228 REND
 230 IF RS18=2 GOTO 650 C*****  2/1 NYAK PASSZE VEGE *****
 C************581TU*******************************************

1C---------------------------------------------------------------------------------------------------------------------
1C                               Y:2:  ALAP: 1 FEKETE   7.5 BUKLE+1HB  I 
1C                               Y:5:  ALAP: 1 FEKETE   7.5 BUKLE+1HB  I    
1C                               Y:3:  MINTA:1 FEKETE   7.5 BUKLE      I            
1C                               Y:4:  ALAP: 1 SZINES   7.5 BUKLE      I             
1C   Y:1:  FELSZOVET: 1 SZINES   Y:1:  FELSZ: 1 SZINES  7.5 BUKLE
1C-----------------------+------------+-------------------------------------------------------------------------------
 300 >> S:DII.-D.II/R-0/0-R; VU   Y:5/2/1;    T1 S1 S2
 302 NP1-1
 304 REP*8
 306 << S:R-R/0-R;           VU   Y:3/1;         S1 S2
 308 >>                      VU                  S1 S2
 310 REPEND
 312 << S:R-R/0-R;           VU   Y:3/1;         S1 S2
 314 >> S:R-R/UVSI*;              Y:3;           S1    T2
C***********************************************************************************************
 316 WM=15
 318 NP6-6
 320 Y:3/4;
 322 JA1=1376(1362-1376);      C POTTYOS ALUL
 324 REP*2
 326 GOSUB 502-504*4
 328 REPEND
 330 JA1=1360(1001-1016);      C POTTYOS KOZEPEN (ATMENET)
 332 RBEG*RS2
 334 GOSUB 502-504
 336 REND
C***********************************************************************************************
 338 CMS
 340 NP1-1
 342 RBEG*RS3
 344 << S:R-R/0-R;         VU   Y:4/1;      S1 S2
 346 >>                    VU               S1 S2
 348 REND
 360 END
C************************************************************************************************

 500 C *********ZSAK ******** PM:<I*>6:F2 . F1 . F1 . F2; *****
 502 << S:<1->IA-./*.-A;     VU              S1 S2
 504 >> S:<1->*A-./I.-A;     VU              S1 S2
 506 C**************************************************************

 650 C ***2/1 PASSZE VEGE********581TU*********
 651 IF RS19=2 PM:<.>290:I;                    C* 2 LAP C 290/291
 652 IF RS19=3 PM:<.>194:I 388:I;              C* 3 LAP C PM:<.>194:I 388:I;
 654 IF RS19=4 PM:<.>290:I                     C* 4 LAP C PM:<.>145:I 290:I 435:I;VAGY:PM:<.>290:I
 656 >> S:I(2)-I(2)/DII.(3)-D.II(3)/DII.-D.II;     Y:0/2/5; VU    T1 S1 S2
 658 END C************************

 999 <> S0 W0 VU
1000 WWWWWWWWWWWWWWWW

1001 ............A...
1002 ....A...........
1003 ................
1004 ................
1005 A...............
1006 ........A.......
1007 ................
1008 ................
1009 ..A.............
1010 ................
1011 ...........A....
1012 ................
1013 ..............A.
1014 ......A.........
1015 ................
1016 ................

1020 ....A.......A...
1022 ................
1024 ................
1026 A.......A.......
1028 ................
1030 ................
1032 ..A........A....
1034 ................
1036 ................
1038 ......A.......A.
1040 ................
1042 ................
1044 ...A.....A......
1046 .............A..
1048 ................
1050 ......A.........
1052 .A........A...A.
1054 ....A...........
1056 ............A...
1058 ................
1060 ....A...A.......
1062 ..A...........A.
1064 ........A..A....
1066 .....A..........
1068 .A..............
1070 ..........A..A..
1072 ..A....A........
1074 ...............A
1076 ..A.A...A...A...
1078 A.....A.........
1080 .........A..A.A.
1082 ...A............
1084 ......A.A......A
1086 .A.........A....
1088 ...A..A..A...A..
1090 ................
1092 .A.A...A.A.A...A
1094 .....A..........
1096 A..A.....A..AA..
1098 .A...A.A.......A
1100 ...A....AA.A..A.
1102 .A...A.A........
1104 A...A...A...A..A
1106 ..A...A...A..A..
1108 A..A....A...A...
1110 ..A.A.A..A.A...A
1112 A..A..A.A.A.A.A.
1114 .A...A.A..A...A.
1116 ..A.A..A.A.A.A.A
1118 A....A..A.A..A..
1120 .A.A..A.A...A..A
1122 ...A..A...A..A..
1124 A.A.AA.A..AA.AA.
1126 .A.A...A.A..A..A
1128 .A..A.A..A.A.A.A

1130 A.AA.A.AA.A.A.A.
1132 .A.A..A..A...A.A
1134 A....A.A.A.AA...
1136 A.A.A.A.A..A.AA.
1138 .A.A..A.A.A.A..A
1140 A.A.A..A.A.A.AA.
1142 .A..A.A...A.A..A
1144 A..A.A.AA.A..AAA
1146 .A.AA..A.A.AA.A.
1148 .AA.AA.A...A.A.A
1150 A..A..A.A.A..AA.
1152 A.A.AA.A.A..A.A.
1154 A.A...A.A..AA..A
1156 .A.A.AA..AA..A.A
1158 A.A.A.A.AA.AA.A.
1160 .AA..A.AA.A.AAA.
1162 AA..A.A..AA.A..A
1164 ..AA.A..A..A.A..
1166 .AA.A..A.A.AA.AA
1168 A..A.A..A.A..A..
1170 .AA.A.AA.A.AA.A.
1172 .A.A.A..A.A.A.AA
1174 A.AA.A.A.A..AA..
1176 ..A.A.AA.A.A..AA
1178 AA.A.A..A.A.AA..
1180 .A..A.AA.A.A.A.A
1182 A..A.A..AA..A.AA
1184 .AAA...A..AA.AA.
1186 A..A.A..AA..A.AA
1188 .AA.A.AAA.A.A..A
1190 A..A.A..A..A..A.
1192 .AA.A.A..AA.A..A
1194 ..A.AA..AA.A.AA.
1196 AA.A..AA..A.A..A
1198 ..A..A..AA.A.A.A
1200 .A.A.A.A..A.A..A
1202 AA..A.A.AA.A.AA.
1204 ..AA.A.A..A.A..A
1206 AA...A.A.A..A.A.
1208 ..A.A.A.A.AA.A..
1210 A.A..A.A..A.A..A
1212 AA.AA.A.A..A..A.
1214 ..A..A.A.AA.AA.A
1216 AA.A..A..A.A..AA
1218 .AA.AA.AA.A.AA..
1220 A...A.A..A.A...A
1222 ..A..A.AA.A.A.A.
1224 AA.AA.AA.A.A.A.A
1226 .AA..A..A.AAA.A.
1228 A.A.AA.A.A..A.A.
1230 A..AA.A.A.AA.AA.
1232 .A.A.A.A.A..A..A
1234 A.A..A.A.AA..A.A
1236 A..AA.A..A.A.AA.
1238 .AA.A.AAA.A.AA.A
1240 A..A.A.A.AA.A.A.
1242 .AA.A.A.A.AA.A.A
1244 A..A.AA.A.A.A.A.
1246 AAA..A.A.A.AAAA.
1248 .A.AA.AAA.A..A.A
1250 A.A.AAA..A.A.AA.
1252 .A.A.A.AA.A.A.AA
1254 .AA.AA.A.AAA.A.A
1256 A..A..AA.A..A.A.
1258 AA.AAA.AA.AA.AAA
1260 .AA.AAA.AAAA.A.A
1262 AA.AA.A.AA.AAAA.
1264 .A.A.A.A.AA.A.AA
1266 A.AAAAAA.A.AAA.A
1268 A.A.A.A.AA.A.AA.
1270 .AAA.A.AA.A.A.AA
1272 AAA.AAA.AAAA.AA.
1274 AA.AA..AA.AAA.AA
1276 .AA.AAA.AAA.AAA.
1278 AAAAAAAA.A.AAA.A
1280 A.AA.A.AAAAA.AAA
1282 .AAA.AAA.A.AAA.A
1284 AAA.AA.AAAAA.AA.
1286 AAAAAA.AAA.AAAAA
1288 .AAA.AAA.AAAAA.A
1290 AAAAAAAAAAAAAAAA
1292 AA.AAA.AA.AA.AAA
1294 AAAA.AAAAAAAAA.A
1296 .AAAAAA.A.AAAAAA
1298 AAAAAAAAAAAA.AAA
1300 A.A.AA.AAAAAAAAA
1302 AAAAAAAAA.AAAAA.
1304 AAA.AAA.AAA.A.AA
1306 .AAAAAAAAAAAAAAA
1308 AAAAAAAA.AAAA.AA
1310 AA.AA.AAAAAAAAAA
1312 AAAAAAAAAAAAAA.A
1314 AAAAAAAAAA.AAAAA
1316 AAAA.AA.AAAAAAAA
1318 A.AAAAAAAAAAA.AA
1320 AAAAAAA.AAA.AAAA
1322 AAAAAAAAAAAAAAAA
1324 AAA.AAAAAAAAAAAA
1326 AAAAAAAAAAA.AAAA
1328 A.AAA.AAAAAAAA.A
1330 AAAAAAAAA.AAAAAA
1332 AAAAAAAAAAAAAAAA
1334 AA.AAAAAAAAAAAAA
1336 AAAAAA.AAAAA.AAA
1338 AAAAAAAAAAAAAAAA
1340 AAAAAAAAAAAAAAAA
1342 A.AAAAAAA.AAAAAA
1344 AAAAAAAAAAAAAAAA
1346 AAAAAAAAAAAAAAAA
1348 AAAA.AAAAAAAA.AA
1350 AAAAAAAAAAAAAAAA
1352 AAAAAAAAAAAAAAAA
1354 AAAAAAA.AAAAAAA.
1356 AAAAAAAAAAAAAAAA
1358 AAAAAAAAAAAAAAAA
1360 AAA.AAAAAAA.AAAA

1362 AAAAAAAAAAAAAAAA
1364 AAAAAAAAAAAAAAAA
1366 AAAAAAAAAAAAAAAA
1368 AAAAAA.AAAAAAAAA
1370 AAAAAAAAAAAAAAAA
1372 AAAAAAAAAAAAAAAA
1374 AAAAAAAAAAAAAAAA
1376 AAAAAAAAAAAAAA.A
1378 WWWWWWWWWWWWWWWW

