C    
C GOMBOLOPANTOS HB KABAT
C 
C JAC.:R2015/ZEBRA
C  
   1C PAMUT: 650-700     HA A SZIN 2*HB:
   1C    HB:1590-1650 
    C   SUM:1120-1150           1241
   1C------------------------------------------------------------------------------
   1C 1HB+1PAMUT         SUM.: 1015.09:1150 FT/KG                               
1C--------+--------+----------+---------+-----------+-------+-------+---------+---------+------+-------+-----+
1C MERET: I FONAL: I SULY*FT: I VARRAS: I KELLLEK:  I  GOZ  I SUMM: I ELADAS: I H:      I IDO: I FT/O: I %:  I
1C--------+--------+----------+---------+-----------+-------+-------+---------+---------+------+-------+-----+
1C PONCSO                                                                                 50'
1C 130*85       0.82*1150=943    250    FREDI 5*11=25  90     1310     2000      690            828
1C--------+--------+----------+---------+-----------+-------+-------+---------+---------+------+-------+-----+
1C M 55*72      0.68*1150=780    200    KISIDA 5*11=55 70     1200     1800       600     ML37'   970    33%
1C--------+--------+----------+---------+-----------+-------+-------+---------+---------+------+-------+-----+
1C L  60*72     0.80*1150=900   350     60CM CIPP
1C KAPUCNIS  ELLA                           80         70     1400     2300       900     ML44'  1227    39%
C  60*79!!           *1241=993            ZSV:10              1500                800            1090    34%
1C--------+--------+----------+---------+-----------+-------+-------+---------+---------+------+-------+-----+
1C XL 60*74     0.80*1150=900   350     60CM CIPP
1C KAPUCNIS  TIMI                           80         70     1400     2300       900     ML44'  1227    39%
1C--------+--------+----------+---------+-----------+-------+-------+---------+---------+------+-------+-----+
1C   SZALVEZETOK:
1C---VAGY:---------------------------------------------------------------------------------------------
1C                                Y:2:    ALAP:  FEKETE   PAMUT+HB    HB A LYUKBA
1C                                Y:5:   MINTA:  SZINES   PAMUT+HB    HB A LYUKBA
1C                                Y:3:  PASSZE:  FEKETE   3HB V.2HB 1PAMUT (PLATIROZVA, EZ LATSZIK ELOL)           
1C                                Y:4:  PASSZE:  FEKETE   3HB V.2HB 1PAMUT                  
1C-----------------------+------------+----------------------------------------------------------------
C
C     UJKT:NPK=0.2 WM%=25
C      PKT:NPK=0.1
C       KT:NPK=0
  10 C--------------------------------------------
  10 NP4=12.8    C:LEVALASZTAS              
  11 NP2=11.0    C:BEKEZDES     
  12 NP1=13.2    C:  KORSLAG  14.4
  13 NP3=12.7    C:2/1 PASSZE   
  15 NP6=12.8    C: MINTA    

  40 START        
  50 YG:6/23456;
  51 WM=16;WMI=7
  52 << S:D.I-DI./DI.-D.I;            Y:2/5;  NP4-4    VU V0       S1 S2
  52 << S:D.I-DI./DI.-D.I;            Y:2/4;  NP4-4    VU V0       S1 S2

C--- M ----------------5KISIDA----VAGY----------------------------KESZEN:------VASALVA:------MIN:--------KG:----------
  60 C IF #100=1   RS17=0         C  UTTU M ELLAOLDALVARRAS NELKUL  55*72          75       ML:37'        0.63  
C--- M ----------------5KISIDA----VAGY-------------------------------------------------------------------------------
  61 C IF #100=2   RS17=1         C  TTT1/2 M ELLA                55*72                     ML:38'        0.65
  62 C IF #100=2   RS17=5         C  UUUUU                                                  ML:33'        0.52  SUM:0.63
C----L 60CM -----------------------------------------ELLA---------------------------------------------------------
  63 C IF #100=42  RS17=2         C  TTT    L ELLA                62*72        65*75        ML:36'        0.60
  64 C IF #100=34  RS17=4         C  UUUU                                                   ML:31'        0.48
  65 C IF #100=18  RS17=6         C  3 KAPUCNI                                              ML:16'        0.27  SUM:0.80

  66 C IF #100=24  RS17=8         C  8 ZSEB                                                 ML:12'        0.19

  67 C IF #100=28  RS17=7         C  3 GALLER                                          CIPPZAR TAKAROPANT:0.02
  68 C IF #100=14  RS17=2         C  TTT    L ELLA                62*72        65*75        ML:36'        0.60
  69 C IF #100=3   RS17=4         C  UUUU KT:08.24. FUST ST=1 NPK=0 WM%=0
C----XL 60CM -----------------------------------TIMI-------------------------------------------------------
  71 C IF #100=2   RS17=3         C  TTT    L TIMI                62*74      65*77          ML:39'        0.62
  72 C IF #100=1   RS17=4         C  UUUU                                                   ML:31'        0.48
  73 C IF #100=21  RS17=10        C  10 ZSEB                                                ML:11'        0.18
  74 C IF #100=18  RS17=6         C  3 KAPUCNI                                              ML:16'        0.27  SUM:0.80
  75 C IF #100=2   RS17=7         C  3 GALLER                                         CIPPZAR TAKAROPANT:0.02
C----PONCSO------------------------------------------------------------------------------------------------------------
  76 C IF #100=2   RS17=9         C 1+1/2 TEST  VASALVA:135*88                             ML:44'        0.73
C------- PANT PLATIROZVA Y:2/5: AT KELL FUZNI --------
  77 C IF #100=1   RS17=52        C MANDZSETTA 2/1 PASSZE                                                 0.08
  78 C IF #100=3   RS17=53        C GOMBOLAS PANT 5 GOMBLYUKKAL                                 3'        0.06
  79 C IF #100=3   RS17=54        C GOMBOLAS PANT  GOMBLYUK NELKUL                                  ROJT: 0.10
  80  IF #100=27   RS17=50        C FELSZOVET PANT AZ Y:5-OT IS AT KELL FUZNI FEKETERE!!!!!!!!!!!!!!!!!
C----------------------------------------------------------------------------------------------------------------
C
C
C------------------------PASSZE:---MINTA ----TEST/PASSZE/PANT:RS18:0/1/2--------------- VASALVA:----KESZEN:    MINTA:
  90 IF RS17=0  RS19=0   RS1=3     RS2=190        RS18=0                  C UTTU   40+60+60+40*75      55*72     
  91 IF RS17=1  RS19=2   RS1=3     RS2=195        RS18=0                  C TTT1/2         200*75      55*72     
  92 IF RS17=2  RS19=3   RS1=3     RS2=180        RS18=0    C 175-181     C TTT             65*75      62*72 ELLA
  93 IF RS17=3  RS19=3   RS1=3     RS2=183        RS18=0    C 180-186     C TTT             65*77      62*74 TIMI
  94 IF RS17=4  RS19=4   RS1=3     RS2=143        RS18=0                  C UUUU            47*60
  95 IF RS17=5  RS19=5   RS1=3     RS2=153        RS18=0                  C UUUUU           40*60
  96 IF RS17=6  RS19=10  RS1=3     RS2=72         RS18=0                  C 3 KAPUCNI      200*30
  98 IF RS17=7  RS19=10  RS1=3     RS2=39         RS18=0                  C 3 GALLER       200*16?
  99 IF RS17=8  RS19=10  RS1=3     RS2=51         RS18=0                  C 8 ZSEB         200*22
 100 IF RS17=10 RS19=10  RS1=3     RS2=44         RS18=0                  C 10ZSEB         200*18

 101 IF RS17=9  RS19=1   RS1=0     RS2=212        RS18=0                  C 1+1/2 TEST  VASALVA:135*88
C------- PANT, PASSZE PLATIROZVA Y:2/5: AT KELL FUZNI -------------------------------------
 102 IF RS17=52 RS19=0   RS1=15  RS15=1           RS18=1                  C 2/1 PASSZE 
 104 IF RS17=53          RS1=9                    RS18=2                  C GOMBLYUKAS PANT
 106 IF RS17=54          RS1=9                    RS18=2                  C PANT GOMBLYUK NELKUL
 108 IF RS17=50     RS18=3   C FELSZOVET PANT RS1 BEALLITASA: 733. SORBAN
C-----------------------------------------------------------------------------------------------ML:55'----1.05-----------
 140 IF RS18=1 GOTO 510                                                   C 2/1 PASSZE
 142 IF RS18=2 GOTO 600                                                   C  PANTOK
 144 IF RS18=3 GOTO 700                                                   C  FELSZOVET PANT

 150 C************581TU**************************************************************
 151 JA1=1270;      C POTTYOS MINTA
 154 PA:1:<JA1>;

 160 IF RS19=0  F1=20-188;F2=41-155;      PM:<I*>6:F2 .  F1 .   F1 .  F2;        C*U-T-T-U  VAGY
 160 IF RS19=0  F1=5-339;F2=40-156;       PM:<I*>6:F2 .  F1 .  F2;               C*U-TT-U   VAGY OLDALVARRAS NELKUL
C                 325TU      117TU
C                2*58CM       43CM

 162 IF RS19=1  F1=7-384;F2=8-198;        PM:<I*>6:F1    A.     F2;              C*1TEST+1/2ELEJE
 164 IF RS19=2  F1=23-184;F2=16-97;       PM:<I*>6:F1 .  F1 .   F2 .  F1;        C*TTT+1/2E
 166 IF RS19=3  F1=32-220;                PM:<I*>6:F1 A. F1 A.  F1;              C*3  
 168 IF RS19=4  F1=32-173;                PM:<I*>6:F1 .  F1  .  F1 .  F1;        C*4 
 170 IF RS19=5  F1=47-159;                PM:<I*>6:F1 .  F1 A.  F1 A. F1 . F1;   C*5  
 172 IF RS19=10 F1=1-46;                  PM:<I*>6:<F1> 577:<I*>;                C*OSZTAS NELKUL
 174 C MS C*******************************************************************************

 200 >>	S:U^NDI./D.I-DI.;            Y:2;                          T1 S1
 202 <<	S:U^ND.I/0-R;		              Y:3;                          T1    S2
 204 >> S:R-R;               NP2-4   Y:6;                  VU            S2 
 206 << S:0-R/R-0;                   Y:6/0;                VU         S1 S2

CCCCCCCCCCCCCCCCCCCCCCCCCCCCCCCCCCCCCCCCCCCCCCCCCCCCCCCCCCCCCCCCCCCCCCCCCCCCCCCCCCCCVAGY          
 208 >>	S:R(2)-R(2)/R(1)-0;    	     Y:3/4;                VU         S1 S2
 209 IF RS1=0 GOTO 218
 210 RBEG*RS1
 212 << S:0-R/R-0;           NP1-1   Y:4/3;                VU         S1 S2
 214 >>                              Y:4/3;                VU         S1 S2
 216 REND
 218 << S:0-R/R-0;           NP1-1   Y:4/3;                VU         S1 S2
 220 >> S:0-R/R-0/UVSI*;             Y:4/3;                           S1 S2 T2
CCCCCCCCCCCCCCCCCCCCCCCCCCCCCCCCCCCCCCCCCCCCCCCCCCCCCCCCCCCCCCCCCCCCCCCCCCCCCCCCCCCCCCCC

C------------------------------------------------------------------------
C  12 NP3=12.2    C:2/1 PASSZE     LAJTOS:12.2 PADAR:12.5
C  13 NP1=10.5    C:  FELSZOVET             
C  15 NP6=12.8    C: FEKETE BUKLE  LAJTOS:12.8 PADAR:13.0
C  16 NP7=12.8    C: SZINES BUKLE  
C***********************************************************************************************
 335 WM=17 C 15-18
 345 Y:2/5;
 348 NP6-6
 350 JA1=1270(1004-1270);      C ZEBRA
 352 RBEG*RS2
 354 << S:<1->+ * A-./+ I .-A;     VU              S1 S2
 356 >> S:<1->  I A-./  * .-A;     VU              S1 S2
 358 REND
 360 CMS

 435 << S:DI.-D.I/D.I-DI.;     VU     Y:5/2;  NP4-4     S1 S2
 440 >>                        VU                       S1 S2
 445 END
C************************************************************************************************


C*********** 2/1-ES PASSZE ********************************************************************
 510 >>	S:U^ND..I/DII.-D..I/UVNDII.; Y:4;                          T1 S1    T2
 512 <<	S:DI..-D..I/UVND..I;		       Y:5;      VL1                    S1    T2
 514 >> S:DII.-0/DII.-D.II;          Y:5/6;                  VU       S1 S2      C  
 516 << S:DII.-0/D..I-R;             Y:6/0;                  VU       S1 S2      C              
 518 >>	S:DII.-D.II;           Y:2;	   NP2-2           VU       S1         C 
 520 IF RS15=0 GOTO 530  C---GUMI NELKUL RS15=0-----
 522 << S:0-D.II;                    Y:6;                       VU       S1          
 524 >>                                                        VU       S2          
 526 << S:DII.-0/DII.-D.II;    Y:2/5;   NP3-3       V0   VU       S1   S2       
 528 GOTO 532            C---GUMIVAL RS15=1---------
 530 << S:0-D.II/DII.-0;             Y:5/2;  NP3-3       V0   VU      S1 S2       
 532 RBEG*RS1
 534 >> S:DII.-D.II;                 Y:2/5;    NP3-3          VU      S1 S2       
 536 <<                                                        VU      S1 S2       
 538 REND
C---------- HA KELL JELOLES: --------------------------------------------------------------------
 542 C JELOLES:
 543 IF RS19=0 PM:<.>;                         C* OSZTAS NELKUL
 544 IF RS19=2 PM:<.>290:I;                    C* 2 LAP C 290/291
 546 IF RS19=3 PM:<.>194:I 388:I;              C* 3 LAP C PM:<.>194:I 388:I;
 548 IF RS19=4 PM:<.>145:I 290:I 435:I;        C* 4 LAP C PM:<.>145:I 290:I 435:I;VAGY:PM:<.>290:I
 552 >> S:I-I/DII.-D.II/DII.-D.II;     Y:0/2/5; VU    T1 S1 S2
C---------- HA NEM KELL JELOLES: ---------------------------------------------------------------
 552 >> S:DII.-D.II/DII.-D.II;                Y:2/5; VU      S1 S2
 554 END 
C**********************************************************************************************************

 600 C ************** ELLA NAGYLYUKUHOZ KORSLAG PANT 1/1 BEKEZDESSEL ************
 602 C CNCA 2010/ CP NP
 604 NP4=12.8    C LEVALASZTAS           12.8
 606 NP12=10.2   C BEKEZDES,1/1,REX      10
 608 NP13=14.5   C SLAG PASSZE           14
 609 NP14=12.7   C 1/1                   12.2
 610 NP11=7.0    C:GOMBLYUK               6
 612 C START
 614 C YG:6/256;
 616 C <<	S:D.I-DI./DI.-D.I;		        Y:2/4;	      NP4-4   V0	VU      S1 S2
 618 WM=20
 620 >>	S:D.I-DI./UVNDI.;   	      	 Y:4;                            S1    T2
 622 <<	S:U^ND.I/DI.-D.I;		          Y:5;			                      T1 S1
 624 >> S:DI.-D.I;                   Y:2;                 VR1 VU     S1
 626 << S:U^NDI./0-D.I;                                           T1 S1
 628 >> S:0-D.I/DI.-D.I;             Y:5/6;               V0 VU      S1 S2
 630 << S:0-D.I/R-0;                 Y:6/0;                  VU      S1 S2

C$$$$$$$$$$ APRO LYUKAK AZ 1/1 UTAN $$$$$$$$$$$$$$$$$$$$$$$$$$$$$$$$$$$$$$$$$$$$$$$$$$$$$$$$$$$$$$$$$$$$
 632 >>	S:D.I-D.I;		                 Y:2;	          NP12-12   VU      S1
 633 << S:0-D.I/D.I-0;               Y:5/2;         NP14-14    VU      S1 S2
 634 >>                                                        VU      S1 S2
 635 << S:D.I(14)-DI.(12);                      Y:5;                       VU      S1
 636 >> S:DI.(12)-D.I(14);                                                 VU      S1
C$$$$$$$$$$$$$$$$$$$$$$$$$$$$$$$$$$$$$$$$$$$$$$$$$$$$$$$$$$$$$$$$$$$$$$$$$$$$$$


 638 REP*2
 640 << S:R-0/0-R;                   Y:2/5;         NP13-13    VU      S1 S2
 642 >> S:0-R/R-0;                                             VU      S1 S2
 644 REPEND
 646 IF RS17=54 GOTO 680 C *** GOMBLYUK NELKUL ***
C----------GOMBLYUK-------------------
 648 JA1=1990;  C 1990 +YTI200.
 650 PA:JA1; 
 652 FA=1-28;
 654 PM:<.>388:5FA; C 3 GOMBLYUK - - JOBB OLDALRA KELL TENNI A LYUKAKAT, MERT A PLTIROZAS ELOL CSIKOZ
 654 PM:<.>393:5FA; C 3 GOMBLYUK - - JOBB OLDALRA KELL TENNI A LYUKAKAT, MERT A PLTIROZAS ELOL CSIKOZ

 656 WM=20 C20
 660 << S:0-R/R-0;                                  VU      S1 S2
 662 >> S:U^S+YTI/T(11)-R/T(8.0)-0;  Y:2/0;               T1 S1 S2
 664 C GOMBLYUKAK:
 666 WM=0
 668 << S:UVS+Y;                          VL2                T2
 670 >> S:UVSTI;                         VR2                T2
 672 WM=20 C22
 674 << S:.YI(13)-+T(11);          Y:2;   V0  VU               S1
 676 WM=20 C24
 678 >> S:+T(11)-.YI(13)/R(13)-0;  Y:5/2; VL1 VU               S1 S2
 680 REP*4
 682 << S:0-R/R-0;                       V0  VU               S1 S2
 684 >> S:R-0/0-R;                           VU               S1 S2
 686 REPEND
 688 END

C------------FELSZOVET GOMBOLAS PANT -1SOR REX+1SOR SLAG ELOL+1SOR SLAG HATUL - GOMBLYUKAZNI KELL -------------
 700 NP4=12.8    C:LEVALASZTAS              
 702 NP12=11.4    C:BEKEZDES   11.0  10.8 11.0  11.4 
 704 NP11=13.5    C:  KORSLAG  13.2  12.8 13.2  13.5
 706 NP10=11.4    C:  REX      11.0  10.8 11.0  11.4
 708 CSTART        
 710 CYG:6/23456;
 712 WM=16;WMI=7
 714 C<< S:D.I-DI./DI.-D.I;            Y:2/4;  NP4-4    VU V0       S1 S2
 716 C------581TU--------
 718 JA1=1002;
 720 PA:1:<JA1>;
 722 PM:5.<I> 577:5.;                C*OSZTAS NELKUL
C-------------------VAGY:-------------------------------------------------------------------------------
 724 >>	S:U^NDI./D.I-DI.;            Y:4;                          T1 S1
 726 <<	S:U^ND.I/0-R/0-R;		          Y:3/5;                        T1 S1 S2
 728 >> S:R-R;               NP2-4   Y:6;                  VU            S2 
 730 << S:0-R/R-.;                   Y:6/0;                VU         S1 S2

 732 >>	S:I(12)-I(12)/I(11)-0;    	  Y:3/2;                VU         S1 S2
 733 RS1=3
 734 RBEG*RS1
 736 << S:0-I(11)/I(10)-I(10);       Y:2/3;                VU         S1 S2
 738 >> S:I(11)-0/0-I(11);           Y:5/2;                VU         S1 S2
 740 << S:I(10)-I(10)/I(11)-0;       Y:4/2;                VU         S1 S2
 742 >> S:0-I(11)/I(10)-I(10);       Y:2/3;                VU         S1 S2
 744 << S:I(11)-0/0-I(11);           Y:5/2;                VU         S1 S2
 746 >> S:I(10)-I(10)/I(11)-0;       Y:4/2;                VU         S1 S2
 748 REND
 750 << S:0-I(11);                   Y:2;                   VU         S1
 752 >> S:I(10)-I(10)/0-I(11);       Y:5/2;                 VU         S1 S2
 754 END
 723 C-----VAGY:--EZ A SZEBB, DE MEG KELL OLDANI, H MINDIG A 3-AS KOSSE A SLAGOT ELOL ES EGY FEL CIKLUSSAL ROVIDEBB LEGYEN--
 724 >>	S:U^NDI./D.I-DI.;            Y:2;                          T1 S1
 726 <<	S:U^ND.I/0-R/0-R;		          Y:3/2;                        T1 S1 S2
 728 >> S:R-R;               NP2-4   Y:6;                  VU            S2 
 730 << S:0-R/R-.;                   Y:6/0;                VU         S1 S2

 732 >>	S:I(12)-I(12)/I(11)-0;    	  Y:3/2;                VU         S1 S2
 733 RS1=3
 734 RBEG*RS1
 736 << S:0-I(11)/I(10)-I(10);       Y:3/2;                VU         S1 S2
 738 >> S:I(11)-0/0-I(11);           Y:4/3;                VU         S1 S2
 740 << S:I(10)-I(10)/I(11)-0;       Y:5/3;                VU         S1 S2
 742 >> S:0-I(11)/I(10)-I(10);       Y:3/2;                VU         S1 S2
 744 << S:I(11)-0/0-I(11);           Y:4/3;                VU         S1 S2
 746 >> S:I(10)-I(10)/I(11)-0;       Y:5/3;                VU         S1 S2
 748 REND
 750 << S:0-I(11);                   Y:2;                   VU         S1
 752 >> S:I(10)-I(10)/0-I(11);       Y:2/4;                 VU         S1 S2
 754 END
C--------------------------------------------------------------------------------------------------
 723 C-----VAGY:--EZ A SZEBB ES EGY FEL CIKLUSSAL ROVIDEBB --
 724 >>	S:U^NDI./D.I-DI.;            Y:2;                          T1 S1
 726 <<	S:U^ND.I/0-R/0-R;		          Y:3/2;                        T1 S1 S2
 728 >> S:R-R;               NP2-4   Y:6;                  VU            S2 
 730 << S:0-R/R-.;                   Y:6/0;                VU         S1 S2

 732 >>	S:I(12)-I(12)/I(11)-0;    	  Y:3/2;                VU         S1 S2
 733 RS1=2
 734 RBEG*RS1
 736 << S:0-I(11)/I(10)-I(10);       Y:3/2;                VU         S1 S2
 738 >> S:I(11)-0/0-I(11);           Y:4/3;                VU         S1 S2
 740 << S:I(10)-I(10)/I(11)-0;       Y:5/3;                VU         S1 S2
 742 >> S:0-I(11)/I(10)-I(10);       Y:3/2;                VU         S1 S2
 744 << S:I(11)-0/0-I(11);           Y:4/3;                VU         S1 S2
 746 >> S:I(10)-I(10)/I(11)-0;       Y:5/3;                VU         S1 S2
 748 REND
 749 GOSUB 736-738
 750 << S:I(10)-I(10);               Y:5;                  VU         S1
 752 >> S:I(11)-0/0-I(11);           Y:5/2;                VU         S1 S2
 754 END
C--------------------------------------------------------------------------------------------------
 999 <> S0 W0 VU

1990 +YTI200.

1002 164W
1004 .4A4.A2(.AA3.)13.A7.AA2(..A3.)9.2(.A.)7.AA2(4.A..)4.A2(A3.)4A..A2(..3A.)A25.A10.
1006 .AA2(A..)2(A3.A)A15.A3.2(3.AA)A16.2(A3.)6.A2(5.A.).2(..A)4A6.A2(3A.)3.5A24.A10.
1008 3A..5A2(AA..).A7.2(6.AA)5.A2(AA3.)..2(4.A)9.AA2(5.A.).A..AA3.3A8.A.3A2(..AA.)22.A10.
1010 .A2(A3.).2(AA..)A11.3A.2(6.A)2(.AA3.).2(9.A)5.A7.AA2(..AA4.)6.A2(A..)3.7A20.A7.
1012 2(..A)AA2(AA..)A...A.A6.3A3.2(6.A)..A2(.4A.).2(6.A)AAA.A.3.A2(.A7.).AA8..A.A3(.A4.)14.3A7.
1014 ..A6.3A.AA2(.A..)A17.AA6.A..A2(A3.)..3A.2(4.A)A2(A3.)..A.A..2(5.A)4.A8..A.AA.2(5.A)16.2(AA..)4.
1016 ..A8.AA.A..A2(..A.)16.A4.6A2(A..)AA2(A..3A3.)2(..AA4.)3.A2(.A.)14.A2(..A4.)A16.AA..A.A6.
1018 ..A8..A.A..A2(.A4.)..2(4.AA).3A2(..A.)5.3A..AA2(3.AA5.).AA6.A..A.AA15.A2(..A4.)A15.AA...A.AA5.
1020 ..A8..A.A..A2(.A4.)2(4..A.A)A3.7A6.A2(AA.).A5.2(4.A.A)6.A..A.A16.A2(..A4.)A14.AA..2(..A)5.
1022 ..A.AAA4..A.A..A2(.A5.)...A.A.2(A.A)A3.2(A6.AA).AA10.A.2(.AA)..A6.A..AA17.A3(..A3.)10.3(.A3.).
1024 .AA2(AA.)..3(.A)3A2(6.A..)A2(...A.A.)4.4A..2(..AA)9.A3.AA2(A3.).2(..A)A17.A3(..A3.)10.AA2(4.A.)..
1026 .3A3.2(..3A)2(..A4.)5.4A2(..A.A..)3.2(AA..A)2(3.AA3.)AA2(5.A.).AA15.2(..A)4.A2(7.A5.)A5.AA..
1028 .A.A6.A..AA2(4.A..)..5A3.A2(3.AA..)..A8.3(.A)A6.AA...A.A2(4.A..)AA.A.13.AA2(..A..)6.AA5.2(5.A)6A.AA
1030 2(.A.)4.A.AA2(5.A.).3A3.2(4.A)A5.5A2(3.A..)2(A..4A)2(A..).AA6.2(A..)AA12.2(.AA.).A10.4A7.A2(A4.).4A
1032 .A..AA4.3A6.A2(8.AA6.)2(A6.)AA2(A..)..4A3.2(..A)A6.2(.A.)..AA12.AA..4A14.8A2(.A..)6.AA
1034 A3.A2(A5.)..A.AA2(AA..)14.3A2(4.A..).2(..A).A2(A6.)A.AA9.A2(..A.)10.3A..A.A10.2(..3A).2(3.A)10.
1036 A4.A2(4.AA3.)3.A6.5A7.3A3.A.2(.5A)..AA2(.A4.)3.3A10.A2(..A..)7.3A...A.A11.AA..A.A6.A..3A9.
1038 .2(3.A)AA.2(7.A)2(4.8A4.)A2(A3.)A2(A6.)AA13.A2(.AA3.)3.A2(A.A...)3.2(3.AA)8.A.5A8.
1040 3.AA2(3.AA5.)A2(AA3.)9.2(7.3A)5.A2(A5.).AA14.A.A...2(3.AA)..A3.3A5.2(3.AA)9.2(.A.)5A4.
1042 2(3.A..)5.3A.2(..AA).AA8.7A..2(..AA)AA12.A.2(4.A)A.A.13..A.A8.3A..2(A.AA)4.2(3.AA)11.A2(..A3.).
1044 3A2(5.AA.)3A2(A6.)4.3A8.2(AA..)5A7.A2(AA3.A..)6.2(7.A..A)3A2(4.AA..).AA12.AA.3A2(A3.)
1046 2(.A5.)2(.AA.)7.A2(8.AA..)..AA6.2(.A..AA).AA2(A6.)9.3A3.2(..A)AA..2(5.AA)4.A7.2(.5A)A4.3A
1048 A2(A6.)A2(3.A5.)..3A6.2(5.AA)6.3(A..)..A2(A8.)4.2(5.AA)AA4.2(5.A)4.A6.3A4..A.A2(A..)5.
1050 8.A3(..A.)6.A2(7.AA5.)..A..2(..AA).AA2(4.AA4.)14.5A13.A..2(3.A)4.4A10.A..AA6.
1052 8.A.3(..A)8.A.2(..A)A5.2(8.AA)..5A2(..A4.)4.AA9.2(9.A)AA5.AA4.2(A..A)AA12.2(..A)A5.
1054 4.2(4.A)2(.A.)6.AA.2(..A)A.A.2(10.AA)3.A2(..A6.)..AA7.2(11.A).2(4.A)2(..A)A16.A4.5A
1056 3.2(5.A)2(3.A4.)3(A..)2(9.AA)7A.2(8.A)AA7.2(11.A)A.2(3.A)..A.AA17.A7.A.
1058 3.2(5.A)A.A.3.2(4.A)2(..A)4.4A.A.AA8.3A8.2(8.A).AA6.2(12.A)2(3.A)..AA14.2(5.A.).
1060 5.2(4.A)A.A.3.2(4.A)4.2(.AA)3A..6A5.AA2(A..)4.2(8.A)..A.A5.2(12.A).2(..A).A2(A7.)..2(4.A)3.
1062 7.3A4.A.AA8.A2(4.AA.)3.A2(A..).5A2(AA4.)4.A2(5.A..)..A8.AA21.2(A..)AA2(AA6.)7.A8.
1064 5.3A6.A.AA3.2(5.A)2(..A.)4.2(A.AA)3.A7.A.2(..2(5.A))A7.3A2(A6.)..2(3.A)2(.3A4.)9.2(.A.)4.
1066 2(5.A3.)A3.2(4.AA).AA3.AA2(3A..)AA.A.6.AA..4(6.A)10.AA2(A5.)3.2(3.A)AA3.2(..A)15.AA6.
1068 4.A9.AA2(3.A4.)2(.AA)6.AA.A..A2(..AA5.)2(5.A)4.5A6.2(5.A)A3.7A..2(4.A)3.AA2(A..)15.A6.
1070 4.A3.2(..2(4.AA)).A8..A.AAA2(..AA3.)8.A3.2(..A.AAA)2(A..AA)A5.4A4.A2(.AA2(A4.).)..11A6.
1072 3.A10.AA..2(5.A)A4.5A5.4A.AA2(..AA..)8.2(3.A).AA4.A.2(3.3A).A..6A7.4A.2(..A)AA2(A6.).A2(AA..)..4A3.
1074 3.A10.3A7.2(AA4.A).8A2(A3.)AA..AA3.3A8.A.A2(A..)..AA9.2(..A)A2(A6.)..AAA.A..3A2(6.AA.).AA6..A.AA..
1076 3.A9.A..AA8.AA..7A2(3A3.)..AA3.3A.2(3.A)A5.3A.2(3.AA)12.2(3.A)7A7.AA2(A..)3.AA.A.6.5A9.A..3A
1078 3.A8.A.5A7.2(..6A)AA8.2(A3.)..AA3.2(..A4.A)3.AA17.A2(AA6.)..9A3.2(6.4A)6A..
1080 3.A8.3A2(..3A3.)9.7A5.AA2(3.A.)4.3A3(..A..)A16.3A.2(9.A).A.A4A.3A2(4A6.)5.
1082 3.A6..A.A2(9.AA6.)5.2(A3.A)..3(.A)9.A...A.A15.AA13.A2(8.AA..)6.3A9.A3.
1084 3.A6.A2(.AA6.)10.A..AA9.A2(A..)..A3(A.).AA8.2(.A..)14.A3.2(.3A)AA..A.2(5.AA)3A2(3A6.)6.A..
1086 3.A5.A2(..A5.)10.2(..A5.A)2(A3.).AAA.A...AA8..A.A3A13.AA2(.4A6.)AA12.8A15.A.
1088 2(3.A.)..A5.AA16.5A..2(..A)3.4A.2(.A5.A)A9.A2(A..)11.4A12.3A4.A2(A16.)3.A.
1090 ..2(..A)4.A2(A3.)13.8A7.A..AA.A...A2(3.A6.)..AA2(A3.)8.4A14.A2(A4.)16.3A15.A
1092 4.3A6.4A16.AA2(A5.)3.2(A.A)A..4A..2(8.A)6.A10.4A14.AA2(A3.)20.AA14.
1094 AA3.A2(A7.)10.A2(AA6.).4A.2(..A)AA..2(7.AA)2(3.A)2(9.3A6.)22.AA13.
1096 ..A2(2(AA.)5.)5.3A2(A8.)AA4.A.A..AA.A.3.3A8.AA4.A3.2(A8.A)8.3A28.AA12.
1098 2(..3A).5A..6A3.2(..A)A2(A7.)3A4.2(A.3A)3A10.AA6.A3.2(A8.A).2(6.3A)7A13.AA11.
1100 5.A2(A..)2(3A4.A)A3.AA2(A6.)2(..3A)4.7A..2(8.AA)..2(AA6.A)A3.2(4.3A)2(..A)6A2(3A7.)3.
1102 7.A4.3(A5.A)3A13.2(.AA)A22.AA8.3(3.A)A2(.AA4.)5.3A.2(..A)5A3.2(.3A)6.A.AA8.
1104 7.2(.AA)2(A4.)AA7.5A12.3A2(AA.)18.3A13.A2(A..)..10A8.2(.3A).AA10.2(.AA..)2(..A)A7.
1106 8.2(..AA)A2(AA..)7.2(.AA)AA7.5A..A.A10.A2(3A3.)14.2(A4.A)7A8.AA.A..AA13.A2(A3.)5.AA6.
1108 4.2(6.A)3A12.AA4.7A.A2(..A.)A6.10A22.A3.4A6.2(4.4A)..A15.A2(A3.)5.AA5.
1110 12.A3(AA.)12.AA4.3A2(AA4.)AA3.6A2(AA6.)10.2(4.A)3A12.3(.AA.)11.2(3.AA.)2(.A3.)..
1112 4.2(..AA)...A.A..5A9.6A8.AA5.A4.2(6.3A)9.2(7.AA)AA13.3A2(3.A3.)2(6.AA)AA3.5A.
1114 ..4A2(.A.).AA.12A.6A2(..3A4.)..AA11.AA2(7.3A4.)6.3A14.AA3.A2(5.AA4.)3.2(..AA)3.A
1116 AA4.3(.A)2(A4.)5.2(4.4A)3A6.2(.AA)11.3A6.A.A.7.AA11.AA2(A..)10.2(.A..)3.4A2(8.AA.)..AA3.
1118 7.AA2(..A3.)14.AA2(6.A3.)AA5.2(7.AA)2(A5.).2(5.3A)4A5.AA2(3.A..)A7.3A10.A4.A3.
1120 ..2(4.A)2(A5.).2(9.A..AA)2(..A)3A10.4A..2(3.AA)5.2(7.A)3A3.2(..A)3.4A.2(..A)A4.5A10.AA3.AA..
1122 5.4A2(3.AA.)12.A.A.10.5A2(3.AA..)8.A2(3A5.)12.2(..3A.).3A3(.A..)AA3.3A2(AA..)9.A3.AA..
1124 4.A.A2(.AA..)..3A10.AA..A2(AA17.)..AA2(A..).5A14.A.9A..A.A4A..2(..A)2(9.AA3.)A..
1126 .3(..A)4.AA5.11A5.2(9.AA)AA17.AA.A.7.5A10.3A3.3(3.A).3A2(AA.A.)..4A9.2(.AA)3.A..
1128 2(..A.).A5.AA24.AA2(3A..)3.2(9.3A)2(AA7.)6.A4.2(3.AA)3.A4.4AA.A.5A10.3A4.A2(A..)
1130 .A4.A2(3.AA..)12.A5.AA8.3A9.9A3.2(..3A)21A4.AA2(3A..).AA7.AAA.A.2(4.AA)AA7.A2(A..)
1132 3(.A3.)3.3A9.4A.2(3.A)AA4.A.AA6.2(3A.A)AA.2(..A)3.9A12.A..A2(3A4.)AA10.3A2(.4A.)9.2(..A)..
1134 A2(A4.)AA8.10A..2(4.A)4A...A.AA..2(..AA)5.AAA.A..AA24.2(A3.AA)7.7A4..A.A22.4A..
1136 2(A5.)AA20.9A3.3A..A.AA.2(..A)A7.A2(AA3.)21.A.2(.AA)3A3.2(.AA)4.2(..AA)A.6A14.A3(A.).
1138 2(A5.)AA17.AA2(A..).4A4.AA.A.AA2(5.AA3.)3A24.2(A..)3.8A10..A.AAA7.14A...A.A..
1140 2(A5.)AA15.AA5.A3.2(A3.A)A.3A2(.A..)4.2(3.AA)26.3A4.2(3.A)A11.2(A.A)22..A.A..
1142 AA2(4.A..)5.2(7.A)8.AA.4(..A)A5.2(3.3A)22.2(3.AA6.)8.AA2(A3.)19.AA3.
1144 .A4.A2(6.A7.)2(.A.)6.4(A.)A2(A..)4.2(3.3A)..6A2(A17.)8.A2(A4.)18.AA3.
1146 .AA2(3.A3.)6A2(A..)7.AA.A.5.A.A.AA2(AA.).A8.3A4.A2(A..)4.5A2(AA11.)12.A2(A6.)15.AA3.
1148 ..A2(A3.)..AA2(AA7.)4.3A10.A.4A2(3.A..)AA4.2(.AA)..4A2(A.AA..)6.A.A.19.A2(A8.)12.AA4.
1150 3.A2(3.A..)3.2(.AA)AA11.4A.3(..A)A.AA3.2(A6.AA)2(AA.).2(4.3A)A3.2(..A)10.2(A6.AA)3A18.AA5.
1152 ..2(..A).2(3.AA)A..2(..A)AA11.4A3.AA.A.3A2(3.A4.)3.A2(AA.)..2(6.AA)AA..A2(3.A7.)3.2(..AA)A16.2(3A.).
1154 A3.A2(A..)AA2(A..)8..A.A17.6A.A2(3.A3.)4.2(.AA)3.2(8.AA).A3.AA5.2(5.A)4.A6.AA8.2(5.3A)
1156 .A3(A..)3A2(.A14.)..3A3(A3.)3.A2(10.AA3.)5.A2(.A4.)6.2(A3.A)2(3.A)A8.6A10.
1158 2(..A.)4(A.)8.3(..A)15.3A2(A3.)A2(6.A4.).2(9.AA)2(.A3.)6.A2(3.A.).A3.7A..2(A.A)6A6.
1160 ..AA3.2(A.A)A12.A2(..A.)13.3A..2(..AA)5.A2(10.A5.)4.AA2(.A4.)5.A3(..A.).AA.A.AA2(4A.)5.AA4.
1162 2(3.A)5A2(14.A.A.3.).A2(A..)..A2(11.A4.)4..A.AA6.3A6..A.A2(3.A.)A2(..A6.)4.AA3.
1164 2(3.A.)AA15.A2(.A4.)6.2(.A.)4.2(.AA)3.A2(11.A4.)5.AAA.A.6.AA6.A.A2(3.A.)3.A2(8.A3.)
1166 3.A6.AA.2(7.A)2(A5.)5.AA11.4AA.A.9.AA5.2(10.A)3.A9.3A2(3.AA3.A.)7.AA11.AA.
1168 3.A6.AA..2(6.A)4A2(3.A6.)A7.6A2(4A3.)12.AA10.A.A.AA11.4A2(A3.)3.AA.A.2(8.AA).A.
1170 3.A4..A.A3.2(5.A).A..AA2(A..)4.3A2(..A.)9.11A17.AA11.A2(.A.)14.A2(A3.)3.3A4.2(6.AA)..A.
1172 2(3.A..)AA..2(4.A)7.4A..2(3.AA)3.A12.A3.AA2(A7.)3.AA12.3(A..)9.2(3.AA)2(7.A4.).AA3.A.
1174 2(..AA..).3A4.A.3A11.4A.2(A4.A)12.A.3A.2(8.AA)13.A.2(.AA)10.2(4.A)A6.3A12.2(3.A)..
1176 ..A4.3A4.A.6A.AA..2(9.A)2(..A)8.AA3(A.)8.AA2(AA7.)4.2(3.A)..AA13.AA.2(3.A)2(4A.)9.AA3.A..
1178 .AA4.A2(.A4.)2(A3.).2(7.A)2(A..).AA4.A2(3A3.)4.AA2(A3.).3A15.A..2(..A)A10.2(3.AA).AA.A.15.AA4.A..
1180 A3.4A.A4.2(3.A)..3A4.2(5.A)A2(A..)2(.3A)A2(AA3.)3.3A2(.A3.)3.AA14.A3.2(..A)A12.AA4.A3(A3.)9.A5.A..
1182 6.7A3.2(..A)4.4A6.A..3A2(A3.).AA3(A.)..2(3.AA)A.2(4.A)..A3.AA7.2(6.A)3.AA10.4A.2(..A)3.AA6.2(5.AA)A
1184 A9.A..3A...A.A7.8A2(3A3.)..A2(2(.AA)5.)3.AA4.A2(.AA.)5.2(7.A)3.A10.A.2(.4A)3A5.3A2(4.A..)
1186 .A9.A.2(..3A)5.2(6.A)A6.2(.A.)AA7.AA.A.5.2(4.AA)A..AA5.2(8.A)2(A3.)4.AA2(4.2(.AA)AA.)10.
1188 .A10.A4.A2(4.AA9.A.)3.A7.4A12.AA3.2(..A)A4.2(9.A)AA..AAA.A..A2(A8.)AA2(5.AA.).
1190 .A8.2(3.A)A4.4A..2(3.A)AA10.A2(.A..)4..A.AA11.2(..3A)AA3.2(11.A).A3.6A9.2(7.AA)5.A3.
1192 .A..4A6.A2(3.A.)5.12A7.A2(.A..)4..A.AA3.4A8.5A.2(A14.A)A5.AA6.2(9.AA)4.A3.
1194 .A2(2(..A)A4.)2(A5.)6.4A..A2(..A.)6.AA2(AA..)3A2(10.A6.)10.5A2(.AA4.)4.A5.4A2(..A..).
1196 .A6.AA..2(5.3A)3A13.2(..AA)..A8.4A.A.A5.A2(9.A7.)14.2(.AA4.)4.A2(4.A..).AA3.
1198 2(.AA5.)2(3.A)A.AA18.A.AA2(A3.).2(4.3A)3.A2(9.AA5.)18.A5.AA8.2(A3.)4.A.3A4.
1200 ..2(A7.A)6A.A17.A3.AA2(A..)6.4A3.2(..AA)9.A2(A13.)10.3A.2(..A)4.2(3.A)6.2(.AA)4.
1202 ..AA2(6.AA.)7.A11.2(..AA4.A)4.AA.A...2(3.A)2(10.AA.)22.A2(.A.)3.6A.A2(A..)5.AA7.
1204 3.A2(A5.)..AA3.2(7.3A)3.2(..AA)A.2(..A5.A)3.A..2(9.AA)21.2(..AA)11.A2(.A..)4.AA7.
1206 5.5A6.3(.A)3A8.7A7.AA2(..A.).AA..2(5.A)3.A5.2(7.AA)24.AA..6A6.2(AA.)2(..3A)7.
1208 19.A2(AA3.)16.A2(A.AA5.)2(3.A.).AA14.3A2(A3.)21.3A8.5A2(AA3.)..4A8.
1210 AA..2(11.A)AA7.2(8.4A)2(3.A.).AA.2(.A19.A).5A2(.A6.)..2(3.3A)5.4A
1212 ..A11.A3.2(12.AA)11.AA2(AA3.).A.A..AA9.2(11.5A)2(.A..)A7.AA12.AA.A.6.AA3.
1214 2(3.A6.)11.A2(A10.)..2(AA.AA)AA3.AA.A.21.A4.11A.2(.4A)..A7.AA2(5.A3.)4.AA4.
1216 2(4.A3.)15.2(..A6.)6.AA.3A..12A6.2(15.A)AA3.2(3.A)A9.2(A4.AA)A.2(4.AA)
1218 2(5.A)21.2(AA5.)8.3A.4A4.9A2(AA17.)7.A..3A7.2(.5A)3A.2(5.AA)
1220 AA4.AAA.A.7.5A2(A10.)5.2(3.AA)A12.A.A2(.AA13.)9.2(..AA).8A..4A.A...A.A2(A5.)3A
1222 ..AA2(AA.)A..4A2(3A4.)..2(..A)A9.A2(A..AA4.)8.3A2(.AA10.)10.2(4.A)18.4A4.2(4.A)A..
1224 6.A..8A3.2(6.3A)..9A.2(..AA)2(.A.)13.AA2(A..)6.AA20.5A2(A5.)5.12A4.2(4.A)3.
1226 9.A2(.4A.)2(6.AA)AA5.2(..AA).AA...A.A16.2(.A..)3.3A18.4A2(A..)3.A2(AA.)5A20.A4.A3.
1228 3.2(5.AA)3.AA2(.A4.)4A4.2(3.A)A2(3A5.)10.2(..A..)A.A.16.AAA.A.8A.5A2(13.A.)3.A3.
1230 7.3A..2(5.AA)4.AA2(7A..)3A5.4A2(A..)10.2(..A.)5.2(6.AA)2(.3A8.)9.AA13.A4.3A.
1232 A2(AA3.)7.16A..3(.A)AA3.5A6.A.2(A.A)13.2(..A)24A32.3A6.2(5.AA)
1234 ..6A11.4A2(A3.)7.AA.2(A..AA)A3.2(..A).A2(A..)12.AA.A...AA2(A4.).5A16.A..16A3.A11.AA6.
1236 3.7A6.AA3(A4.)8.A5.5A4.A2(A..)AA.A.5.2(4.10A)A12.3A.4A..A.AAA13.6A9.4A3.
1238 ..AAA.A..7A8.AA2(..AA4.)6.A2(.AA3.)3.AA.A.5.5A7.A..A2(..AA.)12.2(.A..).11A8.2(..A.)AA10.AA..
1240 2(..A)5.3A12.AA.A.4.A2(A..)5.A2(..AA.)5.2(3.AA)AA9.2(..A)A.A.18.A2(5.3A6.)..A5.4A11.
1242 5A2(AA..).A13.AA3.2(..A)11.AA2(AA.)9.5A15.A..AA.A.16.A2(8.3A..).2(5.AA)3A8.
1244 5.AA2(AA6.)3.2(3.AA)..A8.A3.A2(..AA9.)10.A3(A.)5.2(10.A)9A5.2(A8.A)AA6.
1246 4.A.A.AA2(A6.)6.AA2(.A3.)..2(3.A).A.A9..A.A..5A12.3(.A)8.2(7.A)9.AA.4A2(..AA7.).AA5.
1248 6A3.A2(.A4.)8.A.AA2(3.A5.)A.4A6.A2(A3.)..4A7.15A6.AA2(.A5.)5.2(4.A)AA9.AA3.2(4.A)
1250 ..5A..A2(.A5.)6.A2(..A.)..A2(4.A.)2(.A.)..A2(A5.)3.8A2(AA..)A5.4A..A2(.AA5.)4..A.A3A2(AA3.)..2(5.AA)..AA
1252 .2(..A)3A.A2(A6.)5.A2(2(A3.).)..AA.A...A.A2(A6.)6.4A3.AAA.A.7.2(.3A)6.A..2(6.3A)AA.4A3.2(5.AA)3.
1254 3.A5.3A2(A6.)3.2(..AA)3.2(..A)6..A.A3.AA2(A8.)..3A4.2(A.A)8A4.A.A.A2(A4.)3.2(A7.AA)6A2(4.A.)..
1256 3.A6.3A2(A6.)5.A2(3.AA.)AA7.AA...A.A2(A7.)..AA..2(3.A)3A6.3A2(A..A.)..A4.AA..2(5.3A)6A4.2(3.A)AA3.
1258 2(..3A4.)3.A14.A.AA..2(.3A)A2(A..A)2(4.A..)5.A2(AA5.)A11.AA.A3(.A.)3.A2(7.AA.)12.A..AA5.
1260 2(..AA6.).A13.5A2(5.A3.)A3(5.A.)5.3A...A.A11..A.A...A.AAA3(3.A5.)13.A6.
1262 2(..3A4.)3.A10.3A3(A4.)..2(..A)A6.A5.2(A5.A)3A...A.A9.2(..A)4.6A.A6.A2(A9.)3.2(4.AA).
1264 ..A.AA4.AAA.A..2(5.A)AA2(2(A3.)..)2(3.A)3A4.A2(4.A.)6.AA4.A.A.10.A2(..A.)4A.AA2(A5.)5.3A7.2(6.AA)
1266 A.A..5A2(.A.)6..A.AAA.2(6.A)2(3.A5.)4A..6A2(..AA5.)AA10.AA2(3A.)2(3A.A)3.AA9.2(.A.)10.AA8.A
1268 3A..4A2(A5.)..3A..2(7.A)..5A2(A4.)3.2(.5A)2(.A5.).AA9.A2(AA3.A..).AA..A.A11.A.AA11.A10.
1270 .AA5.2(7.A)A..2(8.A)..A3.AA12.2(..A.).2(AA..)..A2(6.AA.)A2(3.A..)A4.AA2(A..)9.3A12.A10.
1272 164W
