C    
C ZEBRA
C 
C JAC.:R2012
C  
   1C BUKLE     
   1C       VAGY: LAJTOS   2050         
   1C       VAGY: IZA      2000
   1C FEKETE HB 
   1C       VAGY: IZA     32/2-ES: 
   1C       VAGY: TAMAS   30/2-ES:1550FT
   1C       VAGY: BAJAI   32/2-ES:1610 
   1C             LAJTOS: 32/2
   1C             LAJTOS: 16/1
   1C------------------------------------------------------------------------------
   1C                  SUM.: 1013.09:1900-1940 FT/KG                               
1C--------+--------+----------+---------+----------+-------+-------+---------+---------+------+-------+-----+
1C MERET: I FONAL: I SULY*FT: I VARRAS: I KELLLEK: I  GOZ  I SUMM: I ELADAS: I H:      I IDO: I FT/O: I %:  I
1C--------+--------+----------+---------+----------+-------+-------+---------+---------+------+-------+-----+
1C 130*85     1.05 * 2250=2365  250       5*15        90     2780   3800-4000 1000-1220   55'       
1C        SZINES BUKLE:0. 
1C        FEKETE BUKLE:0. 
1C--------+--------+----------+---------+----------+-------+-------+---------+-----+------+-------+-----+
1C   SZALVEZETOK:
1C---VAGY:---------------------------------------------------------------------------------------------
1C                                Y:2:    ALAP: 1 FEKETE   PAMUT+HB    HB A LYUKBA
1C                                Y:5:   MINTA: 1 SZINES   PAMUT+HB    HB A LYUKBA
1C                                Y:3:  PASSZE: 1 FEKETE   2PAMUT+1HB             
1C                                Y:4:  PASSZE: 1 FEKETE   2PAMUT+1HB                 
1C-----------------------+------------+----------------------------------------------------------------
C
C     UJKT:NPK=0.1-+0.2
C      PKT:NPK=+0.0-0.1
C       KT:NPK=-0.1-0
  10 C-----------------------------LAJTOS 7.5-OS BUKLE:----
  10 NP4=12.8    C:LEVALASZTAS              
  11 NP2=11.0    C:BEKEZDES     10.0 
  12 NP3=12.7    C:2/1 PASSZE   12.2  13.2  12.7
  13 NP1=10.5    C:  FELSZOVET             
  15 NP6=12.8    C: MINTA FEKETE   
  16 NP7=12.8    C: MINTA SZINES   

  40 START        
  50 YG:6/23456;
  51 WM=16;WMI=7
  52 << S:D.I-DI./DI.-D.I;            Y:2/4;  NP4-4    VU V0       S1 S2

C----------A NYAKHOZ Y2/5-T AT KELL FUZNI SZINESRE (HB IS)----------KESZEN:------VASALVA:------MIN:--------KG:----------
  60  C IF #100=20  RS17=1         C  UTTU                          72              75                    0.55

  62  C IF #100=20  RS17=0         C  1+1/2 PONCSO TEST             85CM            88CM       ML:40'     0.65     
  63 C  IF #100=3   RS17=52        C MANDZSETTA 2/1 PASSZE                                                0.08
  64 C  IF #100=3   RS17=53        C GOMBOLAS PANT 5 GOMBLYUKKAL                                   3'     0.06
  65 C  IF #100=3   RS17=54        C GOMBOLAS PANT  GOMBLYUK NELKUL                                 ROJT: 0.10
C-----------------------------------------------------------------------------------------------ML:55'----1.05-----------
C
C
C-----------------------GUMI:---PASSZE:---MINTA ----TEST/PASSZE/PANT:RS18:0/1/2--------
  90 IF RS17=1  RS19=0   RS15=0  RS1=2     RS2=170        RS18=0                  C  
  91 IF RS17=0  RS19=10  RS15=0  RS1=1     RS2=200        RS18=0                  C 1+1/2 TEST  VASALVA:135*88
  92 IF RS17=52 RS19=3   RS15=1  RS1=9                    RS18=1                  C MANDZSETTA 2/1 PASSZE 
  94 IF RS17=53 GOTO 600                                                         C GOMBLYUKAS PANT
  96 IF RS17=54 GOTO 600                                                         C PANT GOMBLYUK NELKUL
C*******************************************************************************************************

 150 C************581TU**************************************************************
 151 JA1=1026;      C POTTYOS MINTA
 154 PA:1:<JA1>;

 160  IF RS19=10 FA=1-46;                  PM:<I*>9:<FA> 574:<I*>;              C*OSZTAS NELKUL
 161  IF RS19=1  FA=15-387;FB=2-187;       PM:<I*>9:FA 3(I*) FB;                C*1TEST (E V.H)+1/2ELEJE
 162  IF RS19=3  FA=5-191;                 PM:<I*>9:FA I* FA I* FA;             C*3  
 163  IF RS19=5  FA=42-153;                PM:<I*>7:FA I* FA I* FA I* FA I* FA; C*5  
 164  IF RS19=4  FA=27-166;                PM:<I*>8:FA I* FA I* FA I* FA;       C*4 
 166  IF RS19=0  F1=15-180;F2=41-157;      PM:+<I*>6:F2 . F1 A. F1 . F2 581:+;  C*U-T-T-U
    
 170 C            FA=15-180;               PM:<I*>9:FA I* FA I* FA;             C*3LAP 518 TURE (519-TOL LE KELL TOLNI!)
 170 C MS C*******************************************************************************

 200 >>	S:U^ND..I/DII.-D..I/UVNDII.; Y:2;                          T1 S1    T2
 202 <<	S:DI..-D..I/UVND..I;		                 VL1                    S1    T2
 204 >> S:DII.-0/DII.-D.II;          Y:2/6;                  VU       S1 S2      C  
 206 << S:DII.-0/D..I-R;             Y:6/0;                  VU       S1 S2      C              
 208 >>	S:DII.-D.II;           Y:4;	   NP2-2           VU       S1         C 
C---------------------------------------------------
 210 IF RS15=0 GOTO 220  C---GUMI NELKUL RS15=0-----
 212 << S:0-D.II;                    Y:6;                       VU       S1          
 214 >>                                                        VU       S2          
 216 << S:DII.-0/DII.-D.II;    Y:4/3;   NP3-3       V0   VU       S1   S2       

 218 GOTO 222            C---GUMIVAL RS15=1---------
 220 << S:0-D.II/DII.-0;             Y:4/3;  NP3-3       V0   VU      S1 S2       
C---------------------------------------------------
 222 RBEG*RS1
 224 >> S:DII.-D.II;                 Y:3/4;    NP3-3          VU      S1 S2       
 226 <<                                                        VU      S1 S2       
 228 REND
 230 IF RS18=1 GOTO 550 C*****  2/1 NYAK PASSZE VEGE *****
 C************581TU*******************************************

C------------------------------------------------------------------------
C  12 NP3=12.2    C:2/1 PASSZE     LAJTOS:12.2 PADAR:12.5
C  13 NP1=10.5    C:  FELSZOVET             
C  15 NP6=12.8    C: FEKETE BUKLE  LAJTOS:12.8 PADAR:13.0
C  16 NP7=12.8    C: SZINES BUKLE  
 300C >> S:0-R/R-0;       VU      S1 S2 
 308C REP*1 C 1-2 C****FELSZOVET ALUL********
 310C << S:R(1)-R(1)/0-R(6);  Y:2/5;   VU        S1 S2
 315C >>                               VU        S1 S2
 320C REPEND
 325C <<                               VU        S1 S2
 330 >> S:0-R/0-R/UVSI*;       NP3-3        S1 S2 T2
C***********************************************************************************************
 335 WM=15 C 15-18
 340 CNP6-6
 345 Y:2/5;
 350 JA1=1026(1004-1026);      C ZEBRA
 355 RBEG*RS2
 360 GOSUB 502-504
 365 REND
 366 CMS

 430 REP*1 C 1-2  C***FELSZOVET FELUL****
 435 << S:R-R/0-R;     VU     Y:5/2;  NP1-1     S1 S2
 440 >>                VU                       S1 S2
 442 REPEND
 445 END
C************************************************************************************************

 500 C *********ZSAK ******** PM:+<I*>6:F2 . F1 . F1 . F2 581:+; *****
 502 << S:<1->+ * A(6)-.(6)/+ I .(7)-A(7);     VU              S1 S2
 504 >> S:<1->  I A(6)-.(6)/  * .(7)-A(7);     VU              S1 S2
 506 C**************************************************************

 550 C ***2/1 PASSZE VEGE********581TU*********
 552 CIF RS19=2 PM:<.>290:I;                    C* 2 LAP C 290/291
 554 CIF RS19=3 PM:<.>194:I 388:I;              C* 3 LAP C PM:<.>194:I 388:I;
 556 CIF RS19=4 PM:<.>145:I 290:I 435:I;        C* 4 LAP C PM:<.>145:I 290:I 435:I;VAGY:PM:<.>290:I
 558 C>> S:I(2)-I(2)/DII.(3)-D.II(3)/DII.-D.II;     Y:0/3/4; VU    T1 S1 S2
 558 >> S:DII.(3)-D.II(3)/DII.-D.II;                Y:3/4; VU      S1 S2
 560 END C************************

 600 C ************** ELLA NAGYLYUKUHOZ KORSLAG PANT 1/1 BEKEZDESSEL ************
 602 C CNCA 2010/ CP NP
 604 NP4=12.8    C LEVALASZTAS           12.8
 606 NP12=10.2   C BEKEZDES,1/1,REX      10
 608 NP13=14.5   C SLAG PASSZE           14
 609 NP14=12.7   C 1/1                   12.2
 610 NP11=7.0    C:GOMBLYUK               6
 612 C START
 614 C YG:6/256;
 616 C <<	S:D.I-DI./DI.-D.I;		        Y:2/4;	      NP4-4   V0	VU      S1 S2
 618 WM=20
 620 >>	S:D.I-DI./UVNDI.;   	      	 Y:2;                            S1    T2
 622 <<	S:U^ND.I/DI.-D.I;		              			                      T1 S1
 624 >> S:DI.-D.I;                                        VR1 VU     S1
 626 << S:U^NDI./0-D.I;                                           T1 S1
 628 >> S:0-D.I/DI.-D.I;             Y:2/6;               V0 VU      S1 S2
 630 << S:0-D.I/R-0;                 Y:6/0;                  VU      S1 S2

C$$$$$$$$$$ APRO LYUKAK AZ 1/1 UTAN $$$$$$$$$$$$$$$$$$$$$$$$$$$$$$$$$$$$$$$$$$$$$$$$$$$$$$$$$$$$$$$$$$$$
 632 >>	S:D.I-D.I;		                 Y:4;	          NP12-12   VU      S1
 633 << S:0-D.I/D.I-0;               Y:3/4;         NP14-14    VU      S1 S2
 634 >>                                                        VU      S1 S2
 635 << S:D.I(14)-DI.(12);                      Y:3;                       VU      S1
 636 >> S:DI.(12)-D.I(14);                                                 VU      S1
C$$$$$$$$$$$$$$$$$$$$$$$$$$$$$$$$$$$$$$$$$$$$$$$$$$$$$$$$$$$$$$$$$$$$$$$$$$$$$$


 638 REP*2
 640 << S:R-0/0-R;                   Y:3/4;         NP13-13    VU      S1 S2
 642 >> S:0-R/R-0;                                             VU      S1 S2
 644 REPEND
 646 IF RS17=54 GOTO 680 C *** GOMBLYUK NELKUL ***
C----------GOMBLYUK-------------------
 648 JA1=1990;  C 1990 +YTI200.
 650 PA:JA1; 
 652 FA=1-28;
 654 PM:<.>388:5FA; C 3 GOMBLYUK - - JOBB OLDALRA KELL TENNI A LYUKAKAT, MERT A PLTIROZAS ELOL CSIKOZ
 654 PM:<.>393:5FA; C 3 GOMBLYUK - - JOBB OLDALRA KELL TENNI A LYUKAKAT, MERT A PLTIROZAS ELOL CSIKOZ

 656 WM=20 C20
 660 << S:0-R/R-0;                                  VU      S1 S2
 662 >> S:U^S+YTI/T(11)-R/T(8.0)-0;  Y:4/0;               T1 S1 S2
 664 C GOMBLYUKAK:
 666 WM=0
 668 << S:UVS+Y;                          VL2                T2
 670 >> S:UVSTI;                         VR2                T2
 672 WM=20 C22
 674 << S:.YI(13)-+T(11);          Y:4;   V0  VU               S1
 676 WM=20 C24
 678 >> S:+T(11)-.YI(13)/R(13)-0;  Y:4/3; VL1 VU               S1 S2
 680 REP*4
 682 << S:0-R/R-0;                       V0  VU               S1 S2
 684 >> S:R-0/0-R;                           VU               S1 S2
 686 REPEND
 688 END

 999 <> S0 W0 VU

1990 +YTI200.

1002 WWWWWWWWWWWWWWWWWWWWWWWWWWWWWWWWWWWWWWWWWWWWWW
1004 ...AAAAA..A..AAAAA...AA.AAAA....AAA....AAAA.AA
1006 .AAAA....AAA....AAAA..AA..AAA....A....AAA..AA.
1008 A.AA..A.AA.AA.A..AA.AA.....AAAAA...AAAAA.....A
1010 AAA..A..AAAAA..A..AAA.AA......AAAAAAA......AA.
1012 AA..AA.AA.A.AA.AA..AAA.AA........A........AA.A
1014 ...AA..AAAAAAA..AA...AA.AA..AA.......AA..AA.AA
1016 ..AAA.A.AA.AA.A.AAA....AAAA..AAA...AAA..AAAA..
1018 ..AA..AAAAAAAAA..AA..A..AAAA..AAAAAAA..AAAA..A
1020 .AA..AAAA.A.AAAA..AA..A...AAAA..AAA..AAAA...A.
1022 AA..AAA..AAA..AAA..AA..A...AAAA..A..AAAA...A..
1024 A..A...AAAAAAA...A..AA.AA....AAA...AAA....AA.A
1026 ..A..AAAAAAAAAAA..A..A..AA....AAA.AAA....AA..A
1028 WWWWWWWWWWWWWWWWWWWWWWWWWWWWWWWWWWWWWWWWWWWWWW
