1C DIANA
1C                          NP1=          RS1=
1C                                        ELEJE:       HATA:        UJJA:
1C MELLENY:  150 FA=501-508                         
1C-----------------------+------------+------------+------------+-------------+
1C   3X16/1 PAMUT(FEHER):     14.2          13           -            -
1C-----------------------+------------+------------+------------+-------------+
1C   2X16/1 PAMUT+1BRILL:     14.0          14           -            -
1C-----------------------+------------+------------+------------+-------------+
1C 
1C HOSSZU UJJU MELLENY:  150 FA=683-693
1C-----------------------+------------+------------+------------+-------------+
1C   3X16/1 PAMUT(FEHER):     14.2          13           33            23
1C-----------------------+------------+------------+------------+-------------+
1C   2X16/1 PAMUT+1BRILL:     14.0          14           38            28
1C-----------------------+------------+------------+------------+-------------+
1C
1C TUNIKA:  150 FA=683-693
1C-----------------------+------------+------------+------------+-------------+
1C   3X16/1 PAMUT(FEHER):     14.2          12           30            23
1C-----------------------+------------+------------+------------+-------------+
1C   2X16/1 PAMUT+1BRILL:     14.0          12           33            26
1C-----------------------+------------+------------+------------+-------------+



   1C       14.75  9.0          8.0    14.75
   1C  1: <-------------       ------------->  CSIPKE (15.0)--- 
   1C       14.95   0            0     14.95
   1C
   1C J2: <-------------       ------------->
   1C
   1C        9     15.0          0      9
   1C B2: <-------------       ------------->  BEKEZDES-KORSLAG
   1C        -      -           14.0   13.0
   1C        0     15.0         15.0    0
   1C J3: <-------------       ------------->  PASSZE
   1C        0     16.0         15.0    0
   1C        -      -            0     15.0
   1C B3: <-------------       ------------->  1 SOR SLAG (régi passzé
   1C        -      -            0     15.0     elöl,az új hátul köti)
   1C        13.0   13.0        X13.0  X13.0
  31 C J4: <-------------       ------------->  LEVÁLASZTÁS
  32 C       13.0   13.0        X13.0  X13.0
  33 C        X      X     
  34 C B4: <-------------       ------------->
  35 C        X      X          
   1C TUAGYKORREKCIOK:
   1C                V0:->2.25
   1C                R1:->3.0___________R2:  -   ________R3:->2.25
   1C                L1:->2.25__________L2:->2.5_________L3:->1.5

   1C       
   1C  1: <------+------       ------+------> 
   1C       
   1C       
   1C J2: <------+------       ------+------> 
   1C       
   1C       
   1C B2: <------+------       ------+------> 
   1C       
   1C       
   1C J3: <------+------       ------+------> 
   1C       
   1C       
   1C B3: <------+------       ------+------> 
   1C       
  30 C       13.0   13.0        X13.0  X13.0
  31 C J4: <-------------       ------------->  LEVÁLASZTÁS
  32 C       13.0   13.0        X13.0  X13.0
  33 C        X      X     
  34 C B4: <-------------       ------------->
  35 C        X      X          
   1C TUAGYKORREKCIOK:
   1C   V0:-
   1C   R1:-     __________R2:-     ________R3:-
   1C   L1:-     __________L2:-     ________L3:-

1C                       
1C-----------------------+------------+------------+------------+-------------+
1C 3X16/1 PAMUT(FEHER):
1C-----------------------+------------+------------+------------+-------------+
1C 2X16/1 PAMUT+1BRILL:
1C-----------------------+------------+------------+------------+-------------+
1C 
1C
1C-----------------------+------------+------------+------------+-------------+
1C 
1C-----------------------+------------+------------+------------+-------------+
1C 
1C-----------------------+------------+------------+------------+-------------+
1C
1C
1C-----------------------+------------+------------+------------+-------------+
1C
1C-----------------------+------------+------------+------------+-------------+
1C 
1C-----------------------+------------+------------+------------+-------------+
