Tesztelés:
:CP név.SIN RS1=...
:CP-S név.SIN RS1=...  soronként tesztel
:ED a program megnyitható,javítható
Lyukasztás:
C:\MINTÁZÁS\CNCA>ADDPAR név.SIN név.SPA
C:\MINTÁZÁS\CNCA>PUNCH név.SPA
Port 1 megnyitása:
BR9600                                                  X.IAY*T+OBGHWZ
BOOT:1 SPACE,2 SPACE, 7,Y,R,P,ML RETURN
BOOT törlése:CTRL B

CNCA-n:
-lista:
 ::dir a:
-másolás C-be flopyról:
 ::copy a:... .sin
-CLEAR fordítása:
    CPF CLEAR.SIN Ez után az SPF már a CLEAR-t fogja kötni
    Ha nem veszi be, újra kell indítani a pc-t!

REPORT:
SIN.............TELJES IDÕ
RUN.............TISZTA ÜZEMIDÕ
V=V.............TÚLTERHELÉS-KAR
/_\.............FONALÕR
000.............DARABSZÁMLÁLÓ
>!..............TÚLTERHELÉS
_/].............TÛÕR
%...............ÁRULEHÚZÓ
PR..............PROGRAMOZÁS
MS~.............PROGRAMOZOTT ÁLJ!
->/.............ÜTKÖZÉS(HANGDETEKTOR)
V[].............TÛÁGYVÁLTÓ HIBA
#<>.............LÖKETEK SZÁMA
ML..............LASSÚ LÖKETEK SZÁMA
ST..............DARABSZÁM
CNCA JACQUARD SZIMBÓLUMOK:X.IAY*T+O
 KT  JACQUARD SZIMBÓLUMOK:X.IAY*T+OBGHWZ

 999 C X:V.SZURKE
 999 C .:FEHER
 999 C I:FEKETE
 999 C A:KEKI
 999 C Y:SARGA
 999 C *:PETROL
 999 C T:S.KEK
 999 C +:KIRALYKEK
 999 C O:BORDO
 999 C B:PADLIZSAN
 999 C G:V.LILA , V.ZOLD
 999 C H:VIZKEK
 999 C W:PIROS
 999 C Z:S.SZURKE , MEREGZOLD

 150 JA1=1774(1004-1682); :(X)MINTA;EBBEN VANNAK AZ X-EK
 152 JA2=1804(1804-1810)  :ALAP;EZ LÁTSZIK AZ X-EK HELYÉN
 153 PA:<JA2>1:<JA1>8:II182:II; IF RS17=1 PA:<JA2>;

 SÜLLYESZTÕ LAKATOK ÁTFEDÉSE A CNCA-N:
   1C         -      -            X      X
   1C J4: <-------------       ------------->  LEVALASZTAS
   1C         -      -            X      X 
   1C         X      X            -      - 
   1C B4: <-------------       ------------->  LEVALASZTAS
   1C         X      X            -      - 


PM MEGADÁSOK 553 TÛRE:A cnca-ban 553 tû van. A kt-ban 581, de itt is csak 553 dolgozik.
 415 FA=1-6
 420 3 LAP: PM:<FA>1:9. 186:3. 365:3. 544:10.;
     4 LAP: PM:<FA>1:9. 141:3. 275:3. 409:3. 543:11.;

VAGY:
 170 JA1=1336(1204-1334); C MELLENY:JA1=1136(1004-1134);
 172 JA2=1500(1500-1510)
 175 PA:<JA2>:JA1;
 180 FA=7-182;
 185 PM:<.>8:3(IFAI..);


 VAGY:
 3 LAP:
 415 FA=1-176
 420  PM:<.>10:3(FA...);

 VAGY:(max. helykihasználás, de csak 1 tûágyváltás lehet balra)
 3 LAP:
 415 FA=1-180            FA=1-135
 420  PM:<.>6:3(FA.);    PM:<.>6:4(FA.);

 4 LAP:
 415 FA=1-131
 420  PM:<.>10:4(FA...);


  PATRONKORREKCIÓ A CNCA-N:
  FA=11-186;
  PM:<.>9:3(FA....);
  PA:4:JA1 11:I  185:I.;
     PK^:0; PKV:0;               V0

     PK^:5:JA1   11:.I 186:I;     VL1
     PKV:4:JA1    11:I 185:I.;    VL1 (=PA)

     PK^:6:JA1  11:..I 186:I;     VL2
     PKV:4:JA1    11:I 184:I..;   VL2

     PK^:7:JA1 11:...I 186:I;     VL3
     PKV:4:JA1    11:I 183:I...;  VL3

     PK^:3:JA1    11:I 184:I..;   VR1
     PKV:4:JA1   11:.I 185:I.;    VR1

     PK^:2:JA1    11:I 183:I...;  VR2
     PKV:4:JA1  11:..I 185:I.;    VR2

     PK^:1:JA1    11:I 182:I....; VR3
     PKV:4:JA1 11:...I 185:I.;    VR3

 ÜRES SOR:
 999 <> W0 S0

 BIOSCODETAMAS
 FELH.AZONOSÍTÓ:dob16587
 JELSZÓ:5eWG3FRX

 parafin:lakótelepi patika:granulátum
               2003.03.22.:400ft/kg+magi dij:1.5kg után:105ft
                                             10 kg után:210ft?????
               Nagy Kálmán:600ft/kg tábla
              PATAK patika:531ft/kg tört
  VEGYSZERBOLT-József krt.:600ft/kg tábla

  A KT kompjúterében max.127 karakter fér el egy sintral sorban:
1000 IIIIIIIIIIIIIIIIIIIIIIIIIIIIIIIIIIIIIIIIIIIIIIIIIIIIIIIIIIIIIIIIIIIIIIIIIIIIIIIIIIIIIIIIIIIIIIIIIIIIIIIIIIIIIIIIIIIIIIIIIIIIII$
1008 2(..2(3.Z)..)4.OTBW+G4.2(3.Z)3.OTBW+G..Z7.Z4.OTBW+G2(.Z..)5.Z.OTBW+G.2(3.Z)6.OTBW+G4.2(3.Z)3.OTBW+G..Z7.Z4.OTBW+G2(2(.Z..)4.).$
1009 $Z3.I
